21
 energy: -39.631848465894 gnorm: 0.000806973984 xtb: 6.7.1 (edcfbbe)
C           -2.45984146318601       -2.35906679650132        0.10013316996898
C           -1.53215960754457       -1.30255379606986       -0.41677539445761
O           -1.02436391345180       -1.27561019211818       -1.50273645730329
O           -1.34820563154936       -0.34101212807730        0.51804849177999
C           -0.36540819371586        0.60651974327602        0.32564354827736
C           -0.72497764666511        1.94381748118730        0.41249295492441
C            0.23006925414252        2.93010905156955        0.24764891238283
C            1.54578764936957        2.58788606606697       -0.02237452660200
C            1.90773310594634        1.25805438450093       -0.11135098349985
C            0.96340387797709        0.25032406606398        0.07048934791582
C            1.37578798941338       -1.17364863666708        0.02863218758539
O            0.81772195133162       -2.08006550292259        0.59623396223413
O            2.48543602718963       -1.36420073589473       -0.69192504627638
H           -2.96161320123821       -2.85109055108244       -0.72719104096757
H           -3.17467025121399       -1.93180453704803        0.79656326742407
H           -1.84765545801834       -3.08731200328396        0.63053077875934
H           -1.75632946015434        2.19229105023983        0.60876145277507
H           -0.05686600747367        3.96822698557209        0.32059926087235
H            2.28834121139400        3.35842956059518       -0.16205375251728
H            2.92981698586790        0.97911574349004       -0.31337840657005
H            2.70799378157944       -2.30841125289698       -0.70799072670613
